Currently Loaded Modulefiles:
  1) java/j2sdk/1.6.0_16   3) intel-mpi/4.0         5) amber/11
  2) intel/11.1            4) mkl/10.2
MPD ring info:
d13n01
d13n07
d13n03
d13n06
===ExeBinSignature=== COMPILER: Intel Fortran Compiler 11.1 (70 times, 691776 bytes)
===ExeBinSignature=== COMPILER: Intel Compiler Suite 11.1 (22 times, 74688 bytes)
===ExeBinSignature=== COMPILER: Intel Compiler Suite 12.0 (6 times, 20272 bytes)
===ExeBinSignature=== COMPILER: Intel Compiler Suite 11.0 (5 times, 23232 bytes)
===ExeBinSignature=== COMPILER: Intel Compiler Suite 10.1 (4 times, 23152 bytes)
===ExeBinSignature=== COMPILER: GCC 4.1.2 (2 times, 188 bytes)
===ExeBinSignature=== COMPILER: Intel Fortran Compiler 12.0 (2 times, 64 bytes)
===ExeBinSignature=== COMPILER: Intel Compiler Suite 9.1 (1 times, 128 bytes)
===ExeBinSignature=== COMPILER: Intel Compiler Suite 10.0 (1 times, 128 bytes)
===ExeBinSignature=== DYNLIB: Intel MPI 4.0.0.025
===ExeBinSignature=== DYNLIB: Glibc 2.12
===ExeBinSignature=== DYNLIB: GCC Runtime Support Library 4.3.0
===ExeBinSignature=== STATICLIB: Intel MKL 10.2.2 (77 times, 187392 bytes)
===ExeBinSignature=== STATICLIB: Intel MKL 10.1.1 (29 times, 77860 bytes)
===ExeBinSignature=== STATICLIB: Intel MKL 10.0.x (24 times, 60736 bytes)
===ExeBinSignature=== STATICLIB: Intel MKL 8.0.1 (19 times, 54600 bytes)
===ExeBinSignature=== STATICLIB: Intel MKL 8.1.1 (19 times, 54600 bytes)
===ExeBinSignature=== STATICLIB: Intel MKL 9.1.1 (19 times, 54600 bytes)
===ExeBinSignature=== MD5: fe9ca60681e027cd4d4102c58d5fa228 */ifs/util/util64/amber/amber11-build-may2011/amber11/bin/pmemd.MPI
===ExeBinSignature=== MD5: 0a45eff701e366f551b431ded93e145e */lib64/libdl.so.2
===ExeBinSignature=== MD5: d5bf2e0ff6974cc04b31ebc7d2709f86 */lib64/libpthread.so.0
===ExeBinSignature=== MD5: 578bea6053d7712e5d90a3c22cfec225 */util/intel/impi/4.0.0.025/intel64/lib/libmpi.so.4
===ExeBinSignature=== MD5: 07a1ff59718e3c9f0e6e17279143654a */util/intel/impi/4.0.0.025/intel64/lib/libmpigf.so.4
===ExeBinSignature=== MD5: 451e43913769d6b754e7c212083f5b30 */lib64/librt.so.1
===ExeBinSignature=== MD5: 4d25439e92493bcde3c87ed6e1fce63a */lib64/libm.so.6
===ExeBinSignature=== MD5: e9d60136af010f0a461d4efb42241ef9 */lib64/libc.so.6
===ExeBinSignature=== MD5: 3a9cc3e372a4e42ffa37c1073b1262e9 */lib64/libgcc_s.so.1
[0] MPI startup(): shm and ofa data transfer modes
[1] MPI startup(): shm and ofa data transfer modes
[3] MPI startup(): shm and ofa data transfer modes
[4] MPI startup(): shm and ofa data transfer modes
[2] MPI startup(): shm and ofa data transfer modes
[6] MPI startup(): shm and ofa data transfer modes
[7] MPI startup(): shm and ofa data transfer modes
[8] MPI startup(): shm and ofa data transfer modes
[9] MPI startup(): shm and ofa data transfer modes
[10] MPI startup(): shm and ofa data transfer modes
[5] MPI startup(): shm and ofa data transfer modes
[12] MPI startup(): shm and ofa data transfer modes
[13] MPI startup(): shm and ofa data transfer modes
[15] MPI startup(): shm and ofa data transfer modes
[16] MPI startup(): shm and ofa data transfer modes
[17] MPI startup(): shm and ofa data transfer modes
[18] MPI startup(): shm and ofa data transfer modes
[11] MPI startup(): shm and ofa data transfer modes
[14] MPI startup(): shm and ofa data transfer modes
[20] MPI startup(): shm and ofa data transfer modes
[19] MPI startup(): shm and ofa data transfer modes
[22] MPI startup(): shm and ofa data transfer modes
[24] MPI startup(): shm and ofa data transfer modes
[25] MPI startup(): shm and ofa data transfer modes
[26] MPI startup(): shm and ofa data transfer modes
[21] MPI startup(): shm and ofa data transfer modes
[29] MPI startup(): shm and ofa data transfer modes
[28] MPI startup(): shm and ofa data transfer modes
[27] MPI startup(): shm and ofa data transfer modes
[31] MPI startup(): shm and ofa data transfer modes
[23] MPI startup(): shm and ofa data transfer modes
[30] MPI startup(): shm and ofa data transfer modes
[0] MPI startup(): I_MPI_DEBUG=5
[0] MPI startup(): I_MPI_FABRICS_LIST=ofa,dapl,tcp
[2] MPI startup(): process is pinned to CPU02 on node d13n01.ccr.buffalo.edu
[0] MPI startup(): I_MPI_FALLBACK=enable
[3] MPI startup(): process is pinned to CPU03 on node d13n01.ccr.buffalo.edu
[1] MPI startup(): process is pinned to CPU01 on node d13n01.ccr.buffalo.edu
[4] MPI startup(): process is pinned to CPU04 on node d13n01.ccr.buffalo.edu
[5] MPI startup(): process is pinned to CPU05 on node d13n01.ccr.buffalo.edu
[0] MPI startup(): process is pinned to CPU00 on node d13n01.ccr.buffalo.edu
[8] MPI startup(): process is pinned to CPU00 on node d13n07.ccr.buffalo.edu
[9] MPI startup(): process is pinned to CPU01 on node d13n07.ccr.buffalo.edu
[6] MPI startup(): process is pinned to CPU06 on node d13n01.ccr.buffalo.edu
[10] MPI startup(): process is pinned to CPU02 on node d13n07.ccr.buffalo.edu
[11] MPI startup(): process is pinned to CPU03 on node d13n07.ccr.buffalo.edu
[12] MPI startup(): process is pinned to CPU04 on node d13n07.ccr.buffalo.edu
[7] MPI startup(): process is pinned to CPU07 on node d13n01.ccr.buffalo.edu
[14] MPI startup(): process is pinned to CPU06 on node d13n07.ccr.buffalo.edu
[16] MPI startup(): process is pinned to CPU00 on node d13n03.ccr.buffalo.edu
[18] MPI startup(): process is pinned to CPU02 on node d13n03.ccr.buffalo.edu
[15] MPI startup(): process is pinned to CPU07 on node d13n07.ccr.buffalo.edu
[13] MPI startup(): process is pinned to CPU05 on node d13n07.ccr.buffalo.edu
[17] MPI startup(): process is pinned to CPU01 on node d13n03.ccr.buffalo.edu
[19] MPI startup(): process is pinned to CPU03 on node d13n03.ccr.buffalo.edu
[20] MPI startup(): process is pinned to CPU04 on node d13n03.ccr.buffalo.edu
[21] MPI startup(): process is pinned to CPU05 on node d13n03.ccr.buffalo.edu
[24] MPI startup(): process is pinned to CPU00 on node d13n06.ccr.buffalo.edu
[25] MPI startup(): process is pinned to CPU01 on node d13n06.ccr.buffalo.edu
[22] MPI startup(): process is pinned to CPU06 on node d13n03.ccr.buffalo.edu
[23] MPI startup(): process is pinned to CPU07 on node d13n03.ccr.buffalo.edu
[26] MPI startup(): process is pinned to CPU02 on node d13n06.ccr.buffalo.edu
[29] MPI startup(): process is pinned to CPU05 on node d13n06.ccr.buffalo.edu
[31] MPI startup(): process is pinned to CPU07 on node d13n06.ccr.buffalo.edu
[28] MPI startup(): process is pinned to CPU04 on node d13n06.ccr.buffalo.edu
[27] MPI startup(): process is pinned to CPU03 on node d13n06.ccr.buffalo.edu
[30] MPI startup(): process is pinned to CPU06 on node d13n06.ccr.buffalo.edu
[0] Rank    Pid      Node name               Pin cpu
[0] 0       3856     d13n01.ccr.buffalo.edu  0
[0] 1       3849     d13n01.ccr.buffalo.edu  1
[0] 2       3850     d13n01.ccr.buffalo.edu  2
[0] 3       3851     d13n01.ccr.buffalo.edu  3
[0] 4       3853     d13n01.ccr.buffalo.edu  4
[0] 5       3852     d13n01.ccr.buffalo.edu  5
[0] 6       3854     d13n01.ccr.buffalo.edu  6
[0] 7       3855     d13n01.ccr.buffalo.edu  7
[0] 8       21082    d13n07.ccr.buffalo.edu  0
[0] 9       21081    d13n07.ccr.buffalo.edu  1
[0] 10      21083    d13n07.ccr.buffalo.edu  2
[0] 11      21084    d13n07.ccr.buffalo.edu  3
[0] 12      21085    d13n07.ccr.buffalo.edu  4
[0] 13      21086    d13n07.ccr.buffalo.edu  5
[0] 14      21087    d13n07.ccr.buffalo.edu  6
[0] 15      21088    d13n07.ccr.buffalo.edu  7
[0] 16      15248    d13n03.ccr.buffalo.edu  0
[0] 17      15249    d13n03.ccr.buffalo.edu  1
[0] 18      15250    d13n03.ccr.buffalo.edu  2
[0] 19      15251    d13n03.ccr.buffalo.edu  3
[0] 20      15252    d13n03.ccr.buffalo.edu  4
[0] 21      15253    d13n03.ccr.buffalo.edu  5
[0] 22      15254    d13n03.ccr.buffalo.edu  6
[0] 23      15255    d13n03.ccr.buffalo.edu  7
[0] 24      4588     d13n06.ccr.buffalo.edu  0
[0] 25      4589     d13n06.ccr.buffalo.edu  1
[0] 26      4590     d13n06.ccr.buffalo.edu  2
[0] 27      4591     d13n06.ccr.buffalo.edu  3
[0] 28      4592     d13n06.ccr.buffalo.edu  4
[0] 29      4593     d13n06.ccr.buffalo.edu  5
[0] 30      4594     d13n06.ccr.buffalo.edu  6
[0] 31      4595     d13n06.ccr.buffalo.edu  7

          -------------------------------------------------------
          Amber 11 SANDER                              2010
          -------------------------------------------------------

  [-O]verwriting output

File Assignments:

 Here is the input file:

 Typical Production MD NVT
 &cntrl
   ntx=5, irest=1,
   ntc=2, ntf=2,
   nstlim=10000,
   ntpr=1000, ntwx=1000,
   ntwr=10000,
   dt=0.002, cut=8.,
   ntt=1, tautp=10.0,
   temp0=300.0,
   ntb=2, ntp=1, taup=10.0,
   ioutfm=1,
 /

--------------------------------------------------------------------------------
   1.  RESOURCE   USE:
--------------------------------------------------------------------------------

 getting new box info from bottom of inpcrd

 NATOM  =   23558 NTYPES =      16 NBONH =   22290 MBONA  =    1302
 NTHETH =    2789 MTHETA =    1772 NPHIH =    5026 MPHIA  =    3140
 NHPARM =       0 NPARM  =       0 NNB   =   41859 NRES   =    7182
 NBONA  =    1302 NTHETA =    1772 NPHIA =    3140 NUMBND =      45
 NUMANG =      91 NPTRA  =      33 NATYP =      31 NPHB   =       1
 IFBOX  =       1 NMXRS  =      25 IFCAP =       0 NEXTRA =       0
 NCOPY  =       0

     BOX TYPE: RECTILINEAR

--------------------------------------------------------------------------------
   2.  CONTROL  DATA  FOR  THE  RUN
--------------------------------------------------------------------------------

General flags:
     imin    =       0, nmropt  =       0

Nature and format of input:
     ntx     =       5, irest   =       1, ntrx    =       1

Nature and format of output:
     ntxo    =       1, ntpr    =    1000, ntrx    =       1, ntwr    =   10000
     iwrap   =       0, ntwx    =    1000, ntwv    =       0, ntwe    =       0
     ioutfm  =       1, ntwprt  =       0, idecomp =       0, rbornstat=      0

Potential function:
     ntf     =       2, ntb     =       2, igb     =       0, nsnb    =      25
     ipol    =       0, gbsa    =       0, iesp    =       0
     dielc   =   1.00000, cut     =   8.00000, intdiel =   1.00000

Frozen or restrained atoms:
     ibelly  =       0, ntr     =       0

Molecular dynamics:
     nstlim  =     10000, nscm    =      1000, nrespa  =         1
     t       =   0.00000, dt      =   0.00200, vlimit  =  20.00000

Berendsen (weak-coupling) temperature regulation:
     temp0   = 300.00000, tempi   =   0.00000, tautp   =  10.00000

Pressure regulation:
     ntp     =       1
     pres0   =   1.00000, comp    =  44.60000, taup    =  10.00000

SHAKE:
     ntc     =       2, jfastw  =       0
     tol     =   0.00001

Ewald parameters:
     verbose =       0, ew_type =       0, nbflag  =       1, use_pme =       1
     vdwmeth =       1, eedmeth =       1, netfrc  =       1
     Box X =   62.230   Box Y =   62.230   Box Z =   62.230
     Alpha =   90.000   Beta  =   90.000   Gamma =   90.000
     NFFT1 =   64       NFFT2 =   64       NFFT3 =   64
     Cutoff=    8.000   Tol   =0.100E-04
     Ewald Coefficient =  0.34864
     Interpolation order =    4

--------------------------------------------------------------------------------
   3.  ATOMIC COORDINATES AND VELOCITIES
--------------------------------------------------------------------------------

 begin time read from input coords =     6.000 ps

 Number of triangulated 3-point waters found:     7023

     Sum of charges from parm topology file = -11.00000006
     Assuming uniform neutralizing plasma

--------------------------------------------------------------------------------
   4.  RESULTS
 NSTEP =     1000   TIME(PS) =       8.000  TEMP(K) =   298.56  PRESS =  -375.2
 Etot   =    -58121.3768  EKtot   =     14352.1816  EPtot      =    -72473.5584
 BOND   =       419.0742  ANGLE   =      1220.7041  DIHED      =       962.7278
 1-4 NB =       549.3911  1-4 EEL =      6618.3355  VDWAALS    =      8287.6028
 EELEC  =    -90531.3939  EHBOND  =         0.0000  RESTRAINT  =         0.0000
 EKCMT  =      6324.5721  VIRIAL  =      8270.0634  VOLUME     =    240121.4052
                                                    Density    =         0.9994
 Ewald error estimate:   0.1349E-03
 ------------------------------------------------------------------------------

      A V E R A G E S   O V E R      10 S T E P S

 NSTEP =    10000   TIME(PS) =      26.000  TEMP(K) =   298.60  PRESS =  -182.1
 Etot   =    -58083.9467  EKtot   =     14354.0215  EPtot      =    -72437.9682
 BOND   =       460.6301  ANGLE   =      1250.7931  DIHED      =       983.1778
 1-4 NB =       547.6474  1-4 EEL =      6593.7354  VDWAALS    =      8404.4550
 EELEC  =    -90678.4070  EHBOND  =         0.0000  RESTRAINT  =         0.0000
 EKCMT  =      6337.7401  VIRIAL  =      7275.4782  VOLUME     =    237794.9693
                                                    Density    =         1.0092
 Ewald error estimate:   0.1293E-03
 ------------------------------------------------------------------------------

      R M S  F L U C T U A T I O N S

 NSTEP =    10000   TIME(PS) =      26.000  TEMP(K) =     0.99  PRESS =   170.2
 Etot   =        16.4068  EKtot   =        47.4253  EPtot      =        47.9682
 BOND   =        18.0515  ANGLE   =        39.2515  DIHED      =        14.4660
 1-4 NB =         7.5376  1-4 EEL =        27.3124  VDWAALS    =       131.4759
 EELEC  =       173.2231  EHBOND  =         0.0000  RESTRAINT  =         0.0000
 EKCMT  =        61.0338  VIRIAL  =       871.1752  VOLUME     =      1189.4551
                                                    Density    =         0.0050
 Ewald error estimate:   0.5867E-04
 ------------------------------------------------------------------------------
